Version 4
SHEET 1 880 680
WIRE 320 16 320 -32
WIRE 176 64 176 -16
WIRE 592 64 592 48
FLAG 176 288 0
FLAG 320 144 0
FLAG 672 224 0
SYMBOL npn 112 64 R0
SYMATTR InstName Q1
SYMBOL npn 112 160 R0
SYMATTR InstName Q2
SYMBOL npn 256 16 R0
SYMATTR InstName Q3
SYMBOL npn 512 64 R0
SYMATTR InstName Q4
SYMBOL npn 736 64 R0
SYMATTR InstName Q5
SYMBOL LED 672 -16 R0
SYMATTR InstName D1
SYMBOL res 128 192 R90
WINDOW 0 0 56 VBottom 2
WINDOW 3 32 56 VTop 2
SYMATTR InstName R1
SYMBOL res 128 96 R90
WINDOW 0 0 56 VBottom 2
WINDOW 3 32 56 VTop 2
SYMATTR InstName R2
SYMBOL res 160 -112 R0
SYMATTR InstName R3
SYMBOL res 272 48 R90
WINDOW 0 0 56 VBottom 2
WINDOW 3 32 56 VTop 2
SYMATTR InstName R4
SYMBOL res 304 -128 R0
SYMATTR InstName R5
SYMBOL res 528 96 R90
WINDOW 0 0 56 VBottom 2
WINDOW 3 32 56 VTop 2
SYMATTR InstName R6
SYMBOL res 752 96 R90
WINDOW 0 0 56 VBottom 2
WINDOW 3 32 56 VTop 2
SYMATTR InstName R7
